OPT_V10/Two_days_first_run/powerflow_results_t33.txt
Pandapower Network Debug Info
==================================================

BUS:
       vm_pu  va_degree      p_mw    q_mvar
0   0.995130   0.263642 -0.000095  0.000931
1   0.992215   0.427587  0.000064  0.002207
2   0.989396   0.565847  0.000646  0.003122
3   0.992000   0.417441  0.000964  0.004720
4   0.991477   0.346150  0.001529  0.005166
5   0.993344   0.293237  0.002000  0.006983
6   0.992642   0.346976 -0.000018  0.001048
7   0.998228   0.064605  0.000671  0.002112
8   0.998308   0.066295  0.000697  0.002987
9   0.999845   0.001993  0.008556  0.011083
10  0.999851   0.001906  0.009225  0.008510
11  0.999867   0.001745  0.010318  0.010720
12  0.999792   0.002963  0.008523  0.007188
13  0.999766   0.003088  0.009906  0.009094
14  0.999774   0.003049  0.014221  0.012801
15  0.999938   0.001079  0.000000  0.000000
16  0.999938   0.001086  0.000000  0.000000
17  0.999797   0.002953  0.000000  0.000000
18  0.999797   0.002964  0.000000  0.000000
19  1.000000   0.000000 -0.029805 -0.046376
20  1.000000   0.000006  0.000000  0.000000
21  1.000000   0.000000 -0.037667 -0.052470
22  1.000000   0.000007  0.000000  0.000000
--------------------------------------------------

LINE:
    p_from_mw  q_from_mvar   p_to_mw  q_to_mvar         pl_mw       ql_mvar  i_from_ka   i_to_ka      i_ka  vm_from_pu  va_from_degree  vm_to_pu  va_to_degree  loading_percent
0    0.029795     0.042376 -0.029792  -0.042374  2.624740e-06  2.046553e-06   0.001994  0.001994  0.001994    1.000000        0.000006  0.999938      0.001079         0.866891
1    0.037657     0.048470 -0.037647  -0.048462  1.013368e-05  7.901394e-06   0.002362  0.002362  0.002362    1.000000        0.000007  0.999797      0.002953         1.027161
2    0.028102     0.030315 -0.028099  -0.030313  2.363914e-06  1.843183e-06   0.001591  0.001591  0.001591    0.999938        0.001079  0.999867      0.001745         0.691799
3    0.008523     0.007188 -0.008523  -0.007188  4.300781e-08  3.353390e-08   0.000429  0.000429  0.000429    0.999797        0.002953  0.999792      0.002963         0.186624
4    0.024128     0.021895 -0.024127  -0.021895  5.806876e-07  4.527717e-07   0.001254  0.001254  0.001254    0.999797        0.002953  0.999774      0.003049         0.545356
5    0.001680     0.011059 -0.001622  -0.011013  5.853130e-05  4.563782e-05   0.016147  0.016147  0.016147    0.999938        0.001086  0.995130      0.263642         7.020247
6    0.002037     0.008074 -0.001983  -0.008032  5.381387e-05  4.195956e-05   0.012021  0.012021  0.012021    0.999797        0.002964  0.993344      0.293237         5.226596
7    0.000674     0.002115 -0.000671  -0.002112  3.330554e-06  2.596888e-06   0.003205  0.003205  0.003205    0.999797        0.002964  0.998228      0.064605         1.393358
8    0.002274     0.008190 -0.002262  -0.008180  1.242731e-05  9.689782e-06   0.012271  0.012271  0.012271    0.999797        0.002964  0.998308      0.066295         5.335251
9    0.008556     0.011083 -0.008556  -0.011083  6.781264e-08  5.287464e-08   0.000539  0.000539  0.000539    0.999851        0.001906  0.999845      0.001993         0.234341
10   0.017781     0.019593 -0.017781  -0.019593  3.424709e-07  2.670302e-07   0.001019  0.001019  0.001019    0.999867        0.001745  0.999851      0.001906         0.442841
11   0.009906     0.009094 -0.009906  -0.009094  8.847402e-08  6.898465e-08   0.000518  0.000518  0.000518    0.999774        0.003049  0.999766      0.003088         0.225084
12  -0.000720    -0.005336  0.000737   0.005350  1.742494e-05  1.358651e-05   0.007833  0.007833  0.007833    0.992215        0.427587  0.995130      0.263642         3.405759
13  -0.000964    -0.004720  0.000979   0.004732  1.574576e-05  1.227723e-05   0.007009  0.007009  0.007009    0.992000        0.417441  0.995130      0.263642         3.047528
14  -0.000646    -0.003122  0.000655   0.003130  9.393951e-06  7.324618e-06   0.004651  0.004651  0.004651    0.989396        0.565847  0.992215      0.427587         2.022315
15   0.001565     0.005194 -0.001529  -0.005166  3.592089e-05  2.800811e-05   0.007842  0.007842  0.007842    0.998308        0.066295  0.991477      0.346150         3.409759
16   0.000018    -0.001048 -0.000017   0.001049  9.712264e-07  7.572812e-07   0.001524  0.001524  0.001524    0.992642        0.346976  0.993344      0.293237         0.662822
--------------------------------------------------

TRAFO:
    p_hv_mw  q_hv_mvar   p_lv_mw  q_lv_mvar    pl_mw  ql_mvar   i_hv_ka   i_lv_ka  vm_hv_pu  va_hv_degree  vm_lv_pu  va_lv_degree  loading_percent
0  0.001690   0.012059 -0.001680  -0.011059  0.00001    0.001  0.000469  0.016147  0.999938      0.001079  0.999938      0.001086         0.121775
1  0.004996   0.019378 -0.004986  -0.018379  0.00001    0.001  0.000770  0.027492  0.999797      0.002953  0.999797      0.002964         0.200160
2  0.029805   0.046376 -0.029795  -0.042376  0.00001    0.004  0.000455  0.001994  1.000000      0.000000  1.000000      0.000006         0.137818
3  0.037667   0.052470 -0.037657  -0.048470  0.00001    0.004  0.000533  0.002362  1.000000      0.000000  1.000000      0.000007         0.161475
--------------------------------------------------
